opendss/LVTestCase/data/PV/PV_348.txt
New generator.m_gen39 Phases=1 Bus1=701.3 kV=0.23 kW=1 PF=0.95 Yearly=NM_Shape_133
New generator.m_gen21 Phases=1 Bus1=387.1 kV=0.23 kW=1 PF=0.95 Yearly=PV_Shape_81
New generator.m_gen44 Phases=1 Bus1=785.2 kV=0.23 kW=1 PF=0.95 Yearly=PV_Shape_157
New generator.m_gen13 Phases=1 Bus1=276.2 kV=0.23 kW=1 PF=0.95 Yearly=PV_Shape_88
New generator.m_gen50 Phases=1 Bus1=886.2 kV=0.23 kW=1 PF=0.95 Yearly=PV_Shape_37
New generator.m_gen23 Phases=1 Bus1=406.2 kV=0.23 kW=1 PF=0.95 Yearly=PV_Shape_114
New generator.m_gen20 Phases=1 Bus1=349.1 kV=0.23 kW=1 PF=0.95 Yearly=NM_Shape_22
New generator.m_gen46 Phases=1 Bus1=817.1 kV=0.23 kW=1 PF=0.95 Yearly=PV_Shape_132
New generator.m_gen48 Phases=1 Bus1=860.1 kV=0.23 kW=1 PF=0.95 Yearly=PV_Shape_60
New generator.m_gen52 Phases=1 Bus1=898.1 kV=0.23 kW=1 PF=0.95 Yearly=PV_Shape_8
New generator.m_gen10 Phases=1 Bus1=248.2 kV=0.23 kW=1 PF=0.95 Yearly=PV_Shape_134
